    51
Paddon-Row 4-bond Norbornylogue Donor-Acceptor Compound
C            8.222100770035643        5.209285287082563        0.942781762962060
N            7.975024167227175        5.478799986847003       -0.161260582282433
C            7.605185897923703        5.358461511800467        3.270855828714611
N            6.852551649631571        5.748543714890601        4.067043319765040
C            8.525633411875983        4.879597683204410        2.295009729898155
O           14.060823056371531        5.844712492475573        6.587117092905407
O           15.657393403048225        5.374811651421872        1.223155494588543
C           10.710481901377456        3.542798544582941        1.766640205717359
C           10.582227521677607        2.073498755932883        2.217786736838729
C           10.193162435243256        2.171625293796105        3.709609036339716
C           10.132803584054633        3.688483038481119        3.982477630209629
C           11.536460661877321        4.343477344673412        3.935261249737252
C           12.756386872455979        3.746314231340356        4.666543372706863
C           13.850088777517328        4.781158876786462        4.443294114254678
C           14.471746245124844        5.671101012974005        5.270661335825616
C           15.509896383502545        6.523510305243977        4.751755726248773
C           16.176344611758228        7.460583904436902        5.580701482937473
C           17.170041737957817        8.265776637124837        5.071905170271440
C           17.539014835880305        8.166836056253667        3.713164356515180
C           16.903941483699612        7.268211144856505        2.886129715971419
C           15.873641642045875        6.431672236908251        3.384324623513955
C           15.196722907005416        5.490637545374435        2.528200625212806
C           14.217181655357702        4.690002015481955        3.042166100066535
C           13.337027267444338        3.600942242736263        2.443910253512354
C           11.934331161211345        4.242686705996727        2.409919538881459
C            9.608209629768277        4.163061411037295        2.626554392064220
C           13.281455161247370        2.653982098191340        3.683498241515534
C           14.742350932253915        4.992555073023239        7.508279579421840
C           14.714862342492694        5.803231437248193        0.240276500381746
H           10.634320685741793        3.690009747630926        0.671005414424609
H            9.771794275258651        1.568174093233220        1.636814779421440
H           11.526257735849242        1.510216634616316        2.040617021715312
H            9.186948031384208        1.715313397385095        3.879804270380695
H           10.913456512002876        1.664808949918407        4.390878580787035
H            9.539188099904331        3.967059801315096        4.875860368960371
H           11.416982795187444        5.412450129029199        4.248553560045774
H           12.583904994886161        3.438748117341527        5.713289073188681
H           15.871492398695967        7.530079408694182        6.636964995331447
H           17.683821534007397        8.993177743672579        5.717750730335697
H           18.337769081263492        8.815061689538402        3.323432132059316
H           17.182560754649543        7.175110459267040        1.824400647632975
H           13.686951256381040        3.155532597442721        1.495550768779878
H           12.014268025284540        5.261502584897557        1.950758147989584
H           14.298816003331662        2.297356343324827        3.970781959775626
H           12.632366690042589        1.768086518397611        3.571065284575186
H           14.301751678551545        5.266165150816159        8.499171226672004
H           14.542868727479478        3.920646056252801        7.266184028431566
H           15.840037415315059        5.197921628395820        7.489731370794420
H           15.221001861920360        5.573857459436995       -0.730433221139200
H           13.758801658084234        5.232996981369356        0.336686071607920
H           14.524487677710738        6.899116267820795        0.340267153533715
